/*--------------------------------*- C++ -*----------------------------------*\
  =========                 |
  \\      /  F ield         | OpenFOAM: The Open Source CFD Toolbox
   \\    /   O peration     | Website:  https://openfoam.org
    \\  /    A nd           | Version:  11
     \\/     M anipulation  |
\*---------------------------------------------------------------------------*/
FoamFile
{
    format      ascii;
    class       dictionary;
    object      blockMeshDict;
}
// * * * * * * * * * * * * * * * * * * * * * * * * * * * * * * * * * * * * * //

bp  -0.5;
bn  -1;
bq  -0.125;

bpp 0.5;
bnn 1;
bqq 0.125;

dp_bkp 2;
dn_dkp -2;


dp   2;
dn  -2;

nb  15;
nd  30;
nl  20;

gd   20;
gl   1;

geometry
{
    GPU
    {
        type searchableBox;
        min ($bp $bn $bq);
        max ($bpp $bnn $bqq);

    }
}

convertToMeters 1;

vertices
(

    project ($bp $bn $bq) (GPU)
    project ($bpp $bn $bq) (GPU)
    project ($bp $bnn $bq) (GPU)
    project ($bpp $bnn $bq) (GPU)

    project ($bp $bn $bqq) (GPU)
    project ($bpp $bn $bqq) (GPU)
    project ($bp $bnn $bqq) (GPU)
    project ($bpp $bnn $bqq) (GPU)

    ($dn $dn $dn)
    ($dp $dn $dn)
    ($dn $dp $dn)
    ($dp $dp $dn)

    ($dn $dn $dp)
    ($dp $dn $dp)
    ($dn $dp $dp)
    ($dp $dp $dp)

);

blocks
(
    hex (1 0 8 9 5 4 12 13) ($nb $nd $nb) simpleGrading (1 $gd 1)
    hex (0 2 10 8 4 6 14 12) ($nb $nd $nb) simpleGrading (1 $gd 1)
    hex (2 3 11 10 6 7 15 14) ($nb $nd $nb) simpleGrading (1 $gd 1)
    hex (3 1 9 11 7 5 13 15) ($nb $nd $nb) simpleGrading (1 $gd 1)
    hex (0 1 9 8 2 3 11 10) ($nb $nd $nb) simpleGrading (1 $gd 1)
    hex (5 4 12 13 7 6 14 15) ($nb $nd $nb) simpleGrading (1 $gd 1)

    // Solid region
    hex (0 1 3 2 4 5 7 6) ($nb $nb $nb) simpleGrading (1 1 1)
);

edges
(
    project  0 2  (GPU)
    project  2 3  (GPU)
    project  3 1  (GPU)
    project  1 0  (GPU)
    project  4 6  (GPU)
    project  6 7  (GPU)
    project  7 5  (GPU)
    project  5 4  (GPU)
    project  0 4  (GPU)
    project  2 6  (GPU)
    project  3 7  (GPU)
    project  1 5  (GPU)
);

faces
(
    project (0 2 6 4) GPU
    project (2 3 7 6) GPU
    project (3 1 5 7) GPU
    project (1 0 4 5) GPU
    project (0 1 3 2) GPU
    project (4 5 7 6) GPU
);

boundary
(
    inlet
    {
        type patch;
        faces
        (
            (8 10 14 12)
        );
    }

    walls
    {
        type wall;
        inGroups (externalWall);
        faces
        (
            (8 9 11 10)
            (12 13 15 14)
            (10 11 15 14)
            (8 9 13 12)
        );
    }

    outlet
    {
        type patch;
        faces
        (
            (9 13 15 11)
        );
    }
);

// ************************************************************************* //
